%Mem=96MB 
%NProc=1 

#P HF/6-31G* SCF(Conver=6) NoSymm Test 
   Pop=mk IOp(6/33=2) GFInput GFPrint 

Molecular Electrostatic Potential Dimethylalanine-dipeptide 

0 1 
  C        0.79820802     -2.23181772     -0.02822353
  H        1.71040621     -2.77005410      0.19796919
  H        0.02905896     -2.50835767      0.68076621
  H        0.45713520     -2.52145548     -1.01624189
  C        0.96220715     -0.72564953      0.00048316
  O        0.00000000      0.00000000      0.00000000
  N        2.23664769     -0.28794110      0.00498214
  H        2.98256754     -0.94742446      0.00329221
  C        2.65931158      1.10365428     -0.00160025
  C        2.16480435      1.82482114      1.26491514
  H        1.08650841      1.78049062      1.30456246
  H        2.56669057      1.34850290      2.15270355
  H        2.46327678      2.86773950      1.27275583
  C        2.16883663      1.81346641     -1.27614811
  H        2.46933726      2.85565601     -1.29317057
  H        2.57223653      1.32820071     -2.15844769
  H        1.09052082      1.77061387     -1.31803248
  C        4.20092042      1.04683588     -0.00008896
  O        4.79857766      0.00000000     -0.00000000
  N        4.84657905      2.22549477     -0.00000000
  H        4.33044356      3.07206818      0.00138671
  C        6.29382647      2.29084986      0.00099061
  H        6.70202241      1.80902732      0.87990276
  H        6.70303924      1.80579868     -0.87562325
  H        6.58959251      3.33107028     -0.00076658



