%Mem=96MB 
%NProc=1 

#P HF/6-31G* SCF(Conver=6) NoSymm Test 
   Pop=mk IOp(6/33=2) GFInput GFPrint 

Molecular Electrostatic Potential Dimethylalanine-dipeptide 

0 1 
  C        5.00044765      2.55935210     -0.03174897
  H        5.72538656      1.76573092     -0.17527914
  H        5.10302770      3.26429560     -0.85139009
  H        5.20469001      3.07717189      0.89395723
  C        3.57886799      2.03860757      0.00000000
  O        2.74543814      2.49931944      0.72743713
  N        3.32246177      1.00157339     -0.84674857
  H        4.03944598      0.77188091     -1.49826431
  C        1.97081374      0.56234701     -1.20952800
  C        2.13098578     -0.60017761     -2.20161280
  H        2.61803343     -0.25702329     -3.11019476
  H        2.71950334     -1.40386145     -1.77263517
  H        1.15803079     -0.99177864     -2.46812781
  C        1.16701860      1.69565390     -1.85539848
  H        0.19292481      1.33842589     -2.15662786
  H        1.02974204      2.51546189     -1.16509864
  H        1.69692554      2.05730936     -2.73194588
  C        1.20064403      0.00000000     -0.00000000
  O        0.00000000      0.00000000      0.00000000
  N        1.93084635     -0.59987952      0.96309547
  H        2.89789978     -0.38204959      1.00406762
  C        1.29420982     -1.07813740      2.17181137
  H        0.94092165     -0.26180412      2.79276639
  H        0.45198371     -1.70345471      1.91580632
  H        2.01076092     -1.66498149      2.73205498



