%Mem=96MB 
%NProc=1 

#P HF/6-31G* SCF(Conver=6) NoSymm Test 
   Pop=mk IOp(6/33=2) GFInput GFPrint 

Molecular Electrostatic Potential Dimethylalanine-dipeptide_(extended) 

0 1 
  C        0.04521670      4.58059847     -0.02893622
  H       -0.87449482      4.05530979      0.19727073
  H        0.18635522      5.38577435      0.67993808
  H       -0.03713625      5.02024700     -1.01702940
  C        1.27191097      3.69141553     -0.00000000
  O        2.37915649      4.16724870     -0.00047583
  N        1.02015820      2.36763074      0.00468733
  H        0.07761002      2.04682303      0.00297799
  C        2.01910898      1.31061470     -0.00165610
  C        2.89048035      1.38270187      1.26491234
  H        3.38660329      2.34111635      1.30444646
  H        2.27750680      1.26998965      2.15267315
  H        3.64820171      0.60641581      1.27293030
  C        2.87880783      1.38443260     -1.27615208
  H        3.63489255      0.60674264     -1.29299717
  H        2.25744415      1.27456536     -2.15848035
  H        3.37623016      2.34211881     -1.31814944
  C        1.20542919     -0.00000000      0.00000000
  O        0.00000000      0.00000000      0.00000000
  N        1.90889635     -1.14509638      0.00031988
  H        2.89999182     -1.11660139      0.00177528
  C        1.24810105     -2.43433865      0.00146326
  H        0.62721965     -2.54980277      0.88034765
  H        0.62404120     -2.54935946     -0.87517870
  H        2.00482198     -3.20693822     -0.00011732



